/*--------------------------------*- C++ -*----------------------------------*\
| =========                 |                                                 |
| \\      /  F ield         | OpenFOAM: The Open Source CFD Toolbox           |
|  \\    /   O peration     | Version:  2112                                  |
|   \\  /    A nd           | Website:  www.openfoam.com                      |
|    \\/     M anipulation  |                                                 |
\*---------------------------------------------------------------------------*/
FoamFile
{
    version     2.0;
    format      ascii;
    arch        "LSB;label=32;scalar=64";
    class       polyBoundaryMesh;
    location    "constant/polyMesh";
    object      boundary;
}
// * * * * * * * * * * * * * * * * * * * * * * * * * * * * * * * * * * * * * //

6
(
    exchanger
    {
        type            wall;
        inGroups        1(wall);
        nFaces          214172;
        startFace       11611532;
    }
    hot_inlet
    {
        type            patch;
        nFaces          618;
        startFace       11825704;
    }
    hot_outlet
    {
        type            patch;
        nFaces          654;
        startFace       11826322;
    }
    inlet_baffle
    {
      type	mappedWall;
       sampleRegion	cold;
       samplePatch	inlet_baffle;
       sampleMode	nearestPatchFace;
       offsetMode	uniform;
       offset	(0.0 0.0 0.0);
        nFaces          11567;
        startFace       11826976;
    }
    outlet_baffle
    {
        type	mappedWall;
        sampleRegion	cold;
        samplePatch	outlet_baffle;
        sampleMode	nearestPatchFace;
        offsetMode	uniform;
        offset	(0.0 0.0 0.0);
        nFaces          10964;
        startFace       11838543;
    }
    pipes
    {
         type	mappedWall;
        sampleRegion	cold;
        samplePatch	pipes;
        sampleMode	nearestPatchFace;
        offsetMode	uniform;
        offset	(0.0 0.0 0.0);
        nFaces          644620;
        startFace       11849507;
    }
)

// ************************************************************************* //
