FoamFile
{
    version     2.0;
    format      ascii;
    class       dictionary;
    object      decomposeParDict;
}

// Exported by SnappyHexMesh GUI add-on for Blender v1.0
// Source file:
// Export date: 2022-04-12 17:47:06.428296

numberOfSubdomains 4;

method          scotch;
