FoamFile
{
	version	2.0;
	class	dictionary;
	format	ascii;
	location	"system";
	object	fvSolution;
}
solvers
{
}
SIMPLE
{
	energyCoupling
	{
		iterations	10;
		interval	0;
	}
}
