FoamFile
{
	version	2.0;
	format	ascii;
	class	dictionary;
	location	"system/cold";
	object	decomposeParDict;
}
numberOfSubdomains	4;
method	scotch;
distributed	false;
